REMARK    Small molecule (ligand)
REMARK    Compound: PV-001867933808_1_T1
REMARK    SMILES: O[C@H]1C[C@H](N(C1)C(=O)Cc1ccccc1F)C(=O)N1CCN(CC1)S(=O)(=O)NCC#C
REMARK    The ligand was originally not a salt, therefore no desalting was carried out.
REMARK    The tautomeric state was generated by cxcalc version 18.20.0 of ChemAxons JChem Suite.
REMARK    Protonation state was generated at pH 7.4 by cxcalc version 18.20.0 of ChemAxons JChem Suite.
REMARK    Generation of the 3D conformation was carried out by molconvert version 18.20.0 of ChemAxons JChem Suite.
REMARK    Generation of the the target format file (pdbqt) was carried out by Open Babel version 2.4.1.
REMARK    Created on Wed Nov 14 00:36:12 EST 2018
REMARK  8 active torsions:
REMARK  status: ('A' for Active; 'I' for Inactive)
REMARK    1  A    between atoms: _1  and  _2
REMARK    2  A    between atoms: _4  and  _17
REMARK    3  A    between atoms: _7  and  _9
REMARK    4  A    between atoms: _9  and  _10
REMARK    5  A    between atoms: _22  and  _25
REMARK    6  A    between atoms: _25  and  _28
REMARK    7  A    between atoms: _28  and  _29
REMARK    8  A    between atoms: _29  and  _30
REMARK                            x       y       z     vdW  Elec       q    Type
REMARK                         _______ _______ _______ _____ _____    ______ ____
ROOT
ATOM      1  C   LIG     1       5.294  -9.795   1.397  0.00  0.00    +0.134 C 
ATOM      2  C   LIG     1       6.775 -10.021   1.075  0.00  0.00    +0.140 C 
ATOM      3  N   LIG     1       6.955  -9.266  -0.132  0.00  0.00    -0.287 N 
ATOM      4  C   LIG     1       7.733  -9.638  -1.222  0.00  0.00    +0.221 C 
ATOM      5  O   LIG     1       7.766  -8.881  -2.225  0.00  0.00    -0.275 OA
ATOM      6  C   LIG     1       6.181  -8.045  -0.092  0.00  0.00    +0.165 C 
ATOM      7  C   LIG     1       5.055  -8.345   0.940  0.00  0.00    +0.065 C 
ENDROOT
BRANCH   6   8
ATOM      8  C   LIG     1       6.985  -6.829   0.285  0.00  0.00    +0.236 C 
ATOM      9  N   LIG     1       6.493  -5.520   0.316  0.00  0.00    -0.297 N 
ATOM     10  C   LIG     1       7.268  -4.475   0.976  0.00  0.00    +0.125 C 
ATOM     11  C   LIG     1       6.904  -3.007   0.624  0.00  0.00    +0.129 C 
ATOM     12  N   LIG     1       5.432  -2.838   0.516  0.00  0.00    -0.164 NA
ATOM     13  C   LIG     1       4.888  -3.745  -0.525  0.00  0.00    +0.129 C 
ATOM     14  C   LIG     1       5.146  -5.219  -0.135  0.00  0.00    +0.125 C 
ATOM     15  O   LIG     1       8.173  -7.039   0.640  0.00  0.00    -0.274 OA
BRANCH  12  16
ATOM     16  S   LIG     1       4.938  -1.161   0.230  0.00  0.00    +0.098 S 
ATOM     17  O   LIG     1       5.492  -0.657  -1.187  0.00  0.00    -0.141 OA
ATOM     18  O   LIG     1       5.495  -0.226   1.406  0.00  0.00    -0.141 OA
BRANCH  16  19
ATOM     19  N   LIG     1       3.174  -1.111   0.238  0.00  0.00    -0.168 NA
ATOM     20  H   LIG     1       2.491  -1.845   0.358  0.00  0.00    +0.150 HD
BRANCH  19  21
ATOM     21  C   LIG     1       2.622   0.238   0.035  0.00  0.00    +0.195 C 
BRANCH  21  22
ATOM     22  C   LIG     1       1.257   0.177   0.064  0.00  0.00    -0.089 C 
ATOM     23  C   LIG     1       0.063   0.133   0.088  0.00  0.00    +0.005 C 
ENDBRANCH  21  22
ENDBRANCH  19  21
ENDBRANCH  16  19
ENDBRANCH  12  16
ENDBRANCH   6   8
BRANCH   1  24
ATOM     24  O   LIG     1       4.999 -10.004   2.777  0.00  0.00    -0.390 OA
ATOM     25  H   LIG     1       4.960 -10.946   2.956  0.00  0.00    +0.210 HD
ENDBRANCH   1  24
BRANCH   4  26
ATOM     26  C   LIG     1       8.568 -10.874  -1.260  0.00  0.00    +0.134 C 
BRANCH  26  27
ATOM     27  C   LIG     1       9.086 -11.276  -2.604  0.00  0.00    -0.003 A 
ATOM     28  C   LIG     1      10.447 -11.129  -2.976  0.00  0.00    +0.127 A 
ATOM     29  F   LIG     1      11.318 -10.574  -2.177  0.00  0.00    -0.205 F 
ATOM     30  C   LIG     1      10.899 -11.581  -4.233  0.00  0.00    +0.038 A 
ATOM     31  C   LIG     1      10.003 -12.179  -5.136  0.00  0.00    +0.003 A 
ATOM     32  C   LIG     1       8.647 -12.308  -4.793  0.00  0.00    +0.000 A 
ATOM     33  C   LIG     1       8.194 -11.854  -3.541  0.00  0.00    +0.007 A 
ENDBRANCH  26  27
ENDBRANCH   4  26
TORSDOF 8
