REMARK    Small molecule (ligand)
REMARK    Compound: Z1638529013_1_T1
REMARK    SMILES: CNC(=O)[C@@H]1CN(CCO1)C(=S)NC
REMARK    The ligand was originally not a salt, therefore no desalting was carried out.
REMARK    The tautomeric state was generated by cxcalc version 18.20.0 of ChemAxons JChem Suite.
REMARK    Protonation state was generated at pH 7.4 by cxcalc version 18.20.0 of ChemAxons JChem Suite.
REMARK    Generation of the 3D conformation was carried out by molconvert version 18.20.0 of ChemAxons JChem Suite.
REMARK    Generation of the the target format file (pdbqt) was carried out by Open Babel version 2.4.1.
REMARK    Created on Thu Nov  8 05:04:03 EST 2018
REMARK  5 active torsions:
REMARK  status: ('A' for Active; 'I' for Inactive)
REMARK    1  A    between atoms: _1  and  _2
REMARK    2  A    between atoms: _3  and  _5
REMARK    3  A    between atoms: _7  and  _11
REMARK    4  A    between atoms: _11  and  _13
REMARK    5  A    between atoms: _13  and  _14
REMARK                            x       y       z     vdW  Elec       q    Type
REMARK                         _______ _______ _______ _____ _____    ______ ____
ROOT
ATOM      1  C   LIG     1      -2.675  -3.099  -1.776  0.00  0.00    +0.221 C 
ATOM      2  O   LIG     1      -3.632  -2.046  -2.026  0.00  0.00    -0.364 OA
ATOM      3  C   LIG     1      -3.108  -0.720  -1.826  0.00  0.00    +0.180 C 
ATOM      4  C   LIG     1      -2.557  -0.568  -0.388  0.00  0.00    +0.135 C 
ATOM      5  N   LIG     1      -1.579  -1.606  -0.129  0.00  0.00    -0.308 N 
ATOM      6  C   LIG     1      -2.024  -2.966  -0.365  0.00  0.00    +0.148 C 
ENDROOT
BRANCH   1  10
ATOM      7  C   LIG     1      -5.311  -5.773  -1.231  0.00  0.00    +0.128 C 
ATOM      8  N   LIG     1      -4.529  -4.588  -1.194  0.00  0.00    -0.316 N 
ATOM      9  H   LIG     1      -4.806  -3.820  -0.599  0.00  0.00    +0.148 HD
ATOM     10  C   LIG     1      -3.392  -4.383  -1.916  0.00  0.00    +0.243 C 
ATOM     11  O   LIG     1      -2.957  -5.256  -2.705  0.00  0.00    -0.273 OA
ENDBRANCH   1  10
BRANCH   5  12
ATOM     12  C   LIG     1      -0.334  -1.313   0.316  0.00  0.00    +0.133 C 
ATOM     13  S   LIG     1       0.370  -2.261   1.552  0.00  0.00    -0.019 S 
BRANCH  12  14
ATOM     14  N   LIG     1       0.317  -0.263  -0.204  0.00  0.00    -0.329 N 
ATOM     15  H   LIG     1      -0.213   0.210  -0.922  0.00  0.00    +0.147 HD
ATOM     16  C   LIG     1       1.615   0.212   0.152  0.00  0.00    +0.127 C 
ENDBRANCH  12  14
ENDBRANCH   5  12
TORSDOF 3
